hist_fincl1 = 'TOTECOSYSC', 'TOTECOSYSN', 'TOTSOMC', 'TOTSOMN', 'TOTVEGC', 'TOTVEGN', 'TLAI', 'GPP', 'CPOOL', 'NPP', 'TWS','H2OSNO','NFIX'
reseed_dead_plants=.true.

use_init_interp=.true.

! Adjustments to fire from Daniel Kennedy's scripts (just copied over and kept...)
pot_hmn_ign_counts_alpha = 0.008d00  ! Potential human ignition counts (alpha in Li et. al. 2012) (/person/month) -- default = 0.0035_r8
rh_low = 20.0d00                     ! Relative humidty low (%) -- default = 30.0_r8

